case33_3.m
% case.m - 自定义案例文件

% 母线数据
% [bus_num type V_mag V_angle V_max V_min]
case_mpc.bus = [
    1 3 1.0 0 1 1;
    2 1 1.0 0 1.05 0.9;
    3 1 1.0 0 1.05 0.9;
    4 1 1.0 0 1.05 0.9;
    5 1 1.0 0 1.05 0.9;
    6 1 1.0 0 1.05 0.9;
    7 1 1.0 0 1.05 0.9;
    8 1 1.0 0 1.05 0.9;
    9 1 1.0 0 1.05 0.9;
    10 1 1.0 0 1.05 0.9;
    11 1 1.0 0 1.05 0.9;
    12 1 1.0 0 1.05 0.9;
    13 1 1.0 0 1.05 0.9;
    14 1 1.0 0 1.05 0.9;
    15 1 1.0 0 1.05 0.9;
    16 1 1.0 0 1.05 0.9;
    17 1 1.0 0 1.05 0.9;
    18 1 1.0 0 1.05 0.9;
    19 1 1.0 0 1.05 0.9;
    20 1 1.0 0 1.05 0.9;
    21 1 1.0 0 1.05 0.9;
    22 1 1.0 0 1.05 0.9;
    23 1 1.0 0 1.05 0.9;
    24 1 1.0 0 1.05 0.9;
    25 1 1.0 0 1.05 0.9;
    26 1 1.0 0 1.05 0.9;
    27 1 1.0 0 1.05 0.9;
    28 1 1.0 0 1.05 0.9;
    29 1 1.0 0 1.05 0.9;
    30 1 1.0 0 1.05 0.9;
    31 1 1.0 0 1.05 0.9;
    32 1 1.0 0 1.05 0.9;
    33 1 1.0 0 1.05 0.9;
];

% 支路数据
% [from_bus to_bus r x b I_max]
case_mpc.branch = [
    1 2 0.0922 0.0470 0 10;
    2 3 0.4930 0.2511 0 10;
    3 4 0.3660 0.1864 0 10;
    4 5 0.3811 0.1941 0 10;
    5 6 0.8190 0.7070 0 10;
    6 7 0.1872 0.6188 0 10;
    7 8 0.7114 0.2351 0 10;
    8 9 1.0300 0.7400 0 10;
    9 10 1.0440 0.7400 0 10;
    10 11 0.1966 0.0650 0 10;
    11 12 0.3744 0.1238 0 10;
    12 13 1.4680 1.1550 0 10;
    13 14 0.5416 0.7129 0 10;
    14 15 0.5910 0.5260 0 10;
    15 16 0.7463 0.5450 0 10;
    16 17 1.2890 1.7210 0 10;
    17 18 0.7320 0.5740 0 10;
    2 19 0.1640 0.1565 0 10;
    19 20 1.5042 1.3554 0 10;
    20 21 0.4095 0.4784 0 10;
    21 22 0.7089 0.9373 0 10;
    3 23 0.4512 0.3083 0 10;
    23 24 0.8980 0.7091 0 10;
    24 25 0.8960 0.7011 0 10;
    6 26 0.2030 0.1034 0 10;
    26 27 0.2842 0.1447 0 10;
    27 28 1.0590 0.9337 0 10;
    28 29 0.8042 0.7006 0 10;
    29 30 0.5075 0.2585 0 10;
    30 31 0.9744 0.9630 0 10;
    31 32 0.3105 0.3619 0 10;
    32 33 0.3410 0.5302 0 10;
];

% 发电机数据
% [conn_bus P_max P_min Q_max Q_min S SIC loss a tu CF eff]
% case_mpc.gen = [
%     4 1 0 1 0 1.3 1 0.1 20 8000 200 0.9;
% ];

% 光伏发电数据
% [conn_bus pf S k a b eff]
case_mpc.pv = [
    4 0.9 0.2 0.0872 10800 0.05 0.7;
    19 0.9 0.2 0.0872 10800 0.05 0.7;
    23 0.9 0.2 0.0872 10800 0.05 0.7;
];

% 风力发电数据
% [conn_bus pf S k a b R C]
case_mpc.wind = [
    8 0.9 0.3 0.0872 11520 0.32 70 0.3757;
    14 0.9 0.3 0.0872 11520 0.32 95 0.3757;
    29 0.9 0.3 0.0872 11520 0.32 108 0.3757;
];

% 储能电站数据
% [conn_bus P_max P_min n S a b c]
% case_mpc.ess = [
%     6 0.2 0.1 0.9 0.23 0 0 0;
% ];

% 母线功率需求时段数据
case_mpc.pd_time = cat(3, ...
    repmat([0 100 90 120 60 60 200 200 60 60 45 60 60 120 60 60 60 90 90 90 90 90 90 420 420 60 60 60 120 200 150 210 60]', 1, 24), ... % 场景1
    repmat([0 110 80 130 70 55 210 180 65 55 50 65 55 130 70 65 65 100 85 95 95 85 95 400 430 65 65 65 130 210 140 220 65]', 1, 24), ... % 场景2
    repmat([0 90 100 110 50 65 190 220 55 65 40 55 65 110 50 55 55 80 95 85 85 95 85 440 410 55 55 55 110 190 160 200 55]', 1, 24) ... % 场景3
);

case_mpc.qd_time = cat(3, ...
    repmat([0 60 40 80 30 20 100 100 20 20 30 35 35 80 10 20 20 40 40 40 40 40 50 200 200 25 25 20 70 600 70 100 40]', 1, 24), ... % 场景1
    repmat([0 65 35 85 35 18 110 90 25 18 35 40 30 90 15 25 25 45 35 45 45 35 55 210 210 30 30 25 80 610 60 110 45]', 1, 24), ... % 场景2
    repmat([0 55 45 75 25 22 90 110 15 22 25 30 40 70 5 15 15 35 45 35 35 45 45 190 190 20 20 15 60 590 80 90 35]', 1, 24) ... % 场景3
);

case_mpc.ev_time =  [
    11, 0.95, 1000*[0.0419118017849274	0.0328924919075348	0.584913336067079	0.689404697336948	0.700000000000000	0.699184729644089	0.575968585343529	0.377432259749564	0.518031006773381	0.257632813052417	0.247401474413523	0.247923587216239	0.250852810389095	0.409141413357821	0.593428436951461	0.685494669823656	0.698907192864462	0.698224957889602	0.683748429092218	0.575191706042658	0.537547795374733	0.485705784644462	0.0637868095837604	0.0313411688524416]
];

% 电价数据
case_mpc.price = [
    0.3344 0.3344 0.3344 0.3344 0.3344 0.3344 0.3344 0.5636 0.64 0.64 0.64 0.64 0.64 0.64 0.937975 1.0373 1.0373 1.0373 1.0373 1.0373 1.0373 1.0373 0.64 0.3344;
]';
% case_mpc.price = [0.663];

% 光伏日出力时段数据
case_mpc.pv_time = [
    [0 0 0 0 0 1 77 267 496 700 852 931 925 838 695 514 294 81 2 0 0 0 0 0]; ... % 场景1
    [0 0 0 0 0 4 90 324 548 735 887 947 924 816 640 405 174 47 1 0 0 0 0 0]; ... % 场景2
    [0 0 0 0 0 4 118 291 540 565 873 964 950 858 698 514 291 76 2 0 0 0 0 0]; ... % 场景3
];

% 风力日出力时段数据
case_mpc.wind_time = [
    [2 2 2 2 2 2 2 2 2 2 2 3 3 3 3 3 3 3 3 2 2 2 2 2];
    [2 2 2 2 2 2 2 2 2 3 3 3 3 3 3 2 2 3 5 6 5 4 4 4]; ... % 场景2
    [4 3 3 3 2 2 2 1 1 2 2 1 1 1 2 2 3 4 3 4 3 3 3 3];  ... % 场景3
];

case_mpc.prob = [0.4 0.3 0.3]; % 场景概率